Circuit: * C:\Gits\psu\simulations\2n2222-as-temp.asc

WARNING: Less than two connections to node COM.  This node is used by R6.
Direct Newton iteration for .op point succeeded.
.step temp=0°C
.step temp=10°C
.step temp=20°C
.step temp=30°C
.step temp=40°C
.step temp=50°C
.step temp=60°C
.step temp=70°C
.step temp=80°C
.step temp=90°C
.step temp=100°C
.step temp=110°C
.step temp=120°C
.step temp=130°C
.step temp=140°C
.step temp=150°C

Date: Mon Mar 23 13:07:57 2020
Total elapsed time: 0.517 seconds.

tnom = 27
temp = 150
method = modified trap
totiter = 256
traniter = 248
tranpoints = 125
accept = 125
rejected = 0
matrix size = 21
fillins = 13
solver = Normal
Matrix Compiler1: 1.65 KB object code size  0.3/0.1/[0.1]
Matrix Compiler2: 2.13 KB object code size  0.1/0.2/[0.1]

