Circuit: * C:\Gits\psu\simulations\2n2222-as-temp-inv.asc

WARNING: Less than two connections to node COM.  This node is used by R6.
Direct Newton iteration failed to find .op point.  (Use ".option noopiter" to skip.)
Starting Gmin stepping
Gmin = 10
Gmin = 1.07374
Gmin = 0.115292
Gmin = 0.0123794
Gmin = 0.00132923
Gmin = 0.000142725
Gmin = 1.5325e-05
Gmin = 1.6455e-06
Gmin = 1.76685e-07
Gmin = 1.89714e-08
Gmin = 2.03704e-09
Gmin = 2.18725e-10
Gmin = 2.34854e-11
Gmin = 2.52173e-12
Gmin = 2.70769e-13
Gmin = 0
Gmin stepping succeeded in finding the operating point.

.step temp=15°C
.step temp=25°C
.step temp=35°C
.step temp=45°C
.step temp=55°C
.step temp=65°C
.step temp=75°C
.step temp=85°C
.step temp=95°C
.step temp=105°C
.step temp=115°C
.step temp=125°C
.step temp=135°C
.step temp=145°C
.step temp=150°C

Date: Mon Mar 23 19:13:12 2020
Total elapsed time: 0.442 seconds.

tnom = 27
temp = 150
method = modified trap
totiter = 257
traniter = 250
tranpoints = 126
accept = 126
rejected = 0
matrix size = 20
fillins = 10
solver = Normal
Matrix Compiler1: 1.63 KB object code size  0.3/0.1/[0.1]
Matrix Compiler2: off  [0.1]/0.2/0.2

