Circuit: * C:\Gits\psu\simulations\ac2dc.asc

Error on line 1579 : .............................................................................
	 Unknown control card
Direct Newton iteration for .op point succeeded.
.step x=8.48
.step x=11.31
.step x=12.72

Date: Fri Apr  3 21:26:43 2020
Total elapsed time: 0.359 seconds.

tnom = 27
temp = 27
method = modified trap
totiter = 9722
traniter = 9710
tranpoints = 2520
accept = 1927
rejected = 593
matrix size = 14
fillins = 9
solver = Normal
Matrix Compiler1: 1.86 KB object code size  0.3/0.1/[0.1]
Matrix Compiler2: off  [0.1]/0.1/0.1

