Circuit: * C:\Gits\psu\simulations\current-meas.asc

.step x=0.1
.step x=3.3

Date: Tue May  5 17:43:49 2020
Total elapsed time: 0.389 seconds.

tnom = 27
temp = 27
method = trap
totiter = 20034
traniter = 0
tranpoints = 0
accept = 0
rejected = 0
matrix size = 22
fillins = 24
solver = Normal
Matrix Compiler1: 2.37 KB object code size  0.5/0.2/[0.2]
Matrix Compiler2: 2.96 KB object code size  0.3/0.2/[0.2]

