Circuit: * C:\Gits\psu\simulations\Draft2.asc

Limiting rise time of source v2 to 0.05
Limiting fall time of source v2 to 0.05
WARNING: Node NC_02 is floating.

WARNING: Less than two connections to node NC_01.  This node is used by R1.
WARNING: Less than two connections to node NC_02.  This node is used by R1.
Direct Newton iteration for .op point succeeded.

Date: Sun May 17 12:02:30 2020
Total elapsed time: 0.186 seconds.

tnom = 27
temp = 27
method = modified trap
totiter = 2202
traniter = 2192
tranpoints = 1077
accept = 1068
rejected = 9
matrix size = 12
fillins = 0
solver = Normal
Matrix Compiler1:      34 opcodes  0.1/[0.1]/0.1
Matrix Compiler2: off  [0.1]/0.1/0.1

