Circuit: * C:\Gits\psu\simulations\Draft1.asc


Date: Mon Mar 16 20:12:04 2020
Total elapsed time: 0.056 seconds.

tnom = 27
temp = 27
method = trap
totiter = 0
traniter = 0
tranpoints = 0
accept = 0
rejected = 0
matrix size = 3
fillins = 1
solver = Normal

