Circuit: * C:\Gits\psu\simulations\Draft1.asc

Limiting rise time of source v1 to 0.1
Limiting fall time of source v1 to 0.1
Direct Newton iteration for .op point succeeded.

Date: Tue May 12 18:53:13 2020
Total elapsed time: 0.067 seconds.

tnom = 27
temp = 27
method = modified trap
totiter = 2185
traniter = 2176
tranpoints = 1069
accept = 1064
rejected = 5
matrix size = 15
fillins = 13
solver = Normal
Matrix Compiler1: 1.45 KB object code size  0.2/0.1/[0.1]
Matrix Compiler2: off  [0.1]/0.1/0.1

