Circuit: * C:\Gits\psu\simulations\electronic-load.asc

.step v1=0
Direct Newton iteration failed to find .op point.  (Use ".option noopiter" to skip.)
Starting Gmin stepping
Gmin = 10
Gmin = 1.07374
Gmin = 0.115292
Gmin = 0.0123794
Gmin = 0.00132923
Gmin = 0.000142725
Gmin = 1.5325e-05
Gmin = 1.6455e-06
Gmin = 1.76685e-07
Gmin = 1.89714e-08
Gmin = 2.03704e-09
Gmin = 2.18725e-10
Gmin = 2.34854e-11
Gmin = 2.52173e-12
Gmin = 2.70769e-13
Gmin = 0
Gmin stepping succeeded in finding the operating point.

Direct Newton iteration failed to find .op point.  (Use ".option noopiter" to skip.)
Starting Gmin stepping
Gmin = 10
Gmin = 1.07374
Gmin = 0.115292
Gmin = 0.0123794
Gmin = 0.00132923
Gmin = 0.000142725
Gmin = 1.5325e-05
Gmin = 1.6455e-06
Gmin = 1.76685e-07
Gmin = 1.89714e-08
Gmin = 2.03704e-09
Gmin = 2.18725e-10
Gmin = 2.34854e-11
Gmin = 2.52173e-12
Gmin = 2.70769e-13
Gmin = 0
Gmin stepping succeeded in finding the operating point.

.step v1=5
.step v1=10
.step v1=15
.step v1=20
.step v1=25
.step v1=30
.step v1=35

Date: Mon Mar 23 19:11:57 2020
Total elapsed time: 0.584 seconds.

tnom = 27
temp = 27
method = trap
totiter = 1595
traniter = 0
tranpoints = 0
accept = 0
rejected = 0
matrix size = 35
fillins = 36
solver = Normal
Matrix Compiler1: 3.75 KB object code size  0.6/0.3/[0.2]
Matrix Compiler2: 3.86 KB object code size  0.3/0.4/[0.2]

