Circuit: * C:\Gits\psu\simulations\simple-opamp-gain.asc


Date: Thu Apr  2 22:01:48 2020
Total elapsed time: 0.035 seconds.

tnom = 27
temp = 27
method = trap
totiter = 70
traniter = 0
tranpoints = 0
accept = 0
rejected = 0
matrix size = 12
fillins = 7
solver = Normal
Matrix Compiler1: 780 bytes object code size
Matrix Compiler2: 1.21 KB object code size
