Circuit: * C:\Gits\psu\simulations\trafo-calcs-2.asc

WARNING: Node NC_02 is floating.
WARNING: Node N002 is floating.

WARNING: Less than two connections to node NC_01.  This node is used by V1.
WARNING: Less than two connections to node NC_02.  This node is used by V1.
.OP point found by inspection.

Date: Mon Apr  6 21:45:14 2020
Total elapsed time: 0.165 seconds.

tnom = 27
temp = 27
method = modified trap
totiter = 15804
traniter = 15804
tranpoints = 4741
accept = 3554
rejected = 1187
matrix size = 14
fillins = 4
solver = Normal
Matrix Compiler1:      57 opcodes  0.2/[0.1]/0.3
Matrix Compiler2: 1.12 KB object code size  0.1/0.1/[0.1]

