Questionable use of curly braces in "r7 n009 n009 {x}"
    Error: undefined symbol in: "[x]"
Circuit: * C:\Gits\psu\simulations\trafo-calcs.asc

R7: both pins shorted together -- ignoring.
R10: both pins shorted together -- ignoring.
WARNING: Node N015 is floating.

Early termination of direct N-R iteration.
Direct Newton iteration failed to find .op point.  (Use ".option noopiter" to skip.)
Starting Gmin stepping
Gmin = 10
Gmin = 1.07374
Gmin = 0.115292
Gmin = 0.0123794
Gmin = 0.00132923
Gmin = 0.000142725
Gmin = 1.5325e-05
Gmin = 1.6455e-06
Gmin = 1.76685e-07
Gmin = 1.89714e-08
Gmin = 2.03704e-09
Gmin = 2.18725e-10
Gmin = 2.34854e-11
Gmin = 2.52173e-12
Gmin = 2.70769e-13
Gmin = 0
Gmin stepping succeeded in finding the operating point.


Date: Thu Apr  9 22:04:34 2020
Total elapsed time: 0.880 seconds.

tnom = 27
temp = 27
method = modified trap
totiter = 21704
traniter = 21208
tranpoints = 5992
accept = 4265
rejected = 1727
matrix size = 245
fillins = 534
solver = Normal
Thread vector: 26.1/12.9[7] 11.2/5.6[7] 6.1/2.3[7] 0.8/1.0[1]  2592/500
Matrix Compiler1: 56.40 KB object code size  8.3/4.0/[2.6]
Matrix Compiler2: 31.14 KB object code size  3.7/3.3/[1.4]

