Questionable use of curly braces in "r7 n009 n009 {x}"
    Error: undefined symbol in: "[x]"
Circuit: * Z:\home\at\gits\psu\simulations\trafo-calcs.asc

R7: both pins shorted together -- ignoring.
R10: both pins shorted together -- ignoring.
WARNING: Node N015 is floating.

Early termination of direct N-R iteration.
Direct Newton iteration failed to find .op point.  (Use ".option noopiter" to skip.)
Starting Gmin stepping
Gmin = 10
Gmin = 1.07374
Gmin = 0.115292
Gmin = 0.0123794
Gmin = 0.00132923
Gmin = 0.000142725
Gmin = 1.5325e-005
Gmin = 1.6455e-006
Gmin = 1.76685e-007
Gmin = 1.89714e-008
Gmin = 2.03704e-009
Gmin = 2.18725e-010
Gmin = 2.34854e-011
Gmin = 2.52173e-012
Gmin = 2.70769e-013
Gmin = 0
Gmin stepping succeeded in finding the operating point.

.step v2=2
.step v2=2.5
.step v2=3

Date: Thu Apr 30 22:09:04 2020
Total elapsed time: 5.263 seconds.

tnom = 27
temp = 27
method = modified trap
totiter = 22844
traniter = 22351
tranpoints = 6098
accept = 4255
rejected = 1843
matrix size = 245
fillins = 534
solver = Normal
Thread vector: 57.2/15.8[4] 24.2/7.5[4] 11.0/6.8[4] 2.4/3.4[1]  2592/500
Matrix Compiler1: 56.40 KB object code size  25.3/15.6/[5.7]
Matrix Compiler2: 31.14 KB object code size  12.3/13.0/[2.9]

