Circuit: * C:\Gits\psu\simulations\trafo-calcs-3.asc

Limiting rise time of source v1 to 0.025
Limiting fall time of source v1 to 0.025
WARNING: Node N002 is floating.

.OP point found by inspection.

Date: Fri May  8 23:41:57 2020
Total elapsed time: 0.456 seconds.

tnom = 27
temp = 27
method = modified trap
totiter = 120875
traniter = 120875
tranpoints = 31285
accept = 21581
rejected = 9704
matrix size = 20
fillins = 6
solver = Normal
Matrix Compiler1: 1.42 KB object code size  0.2/0.1/[0.1]
Matrix Compiler2: 1.63 KB object code size  0.1/0.2/[0.1]

